<?xml version="1.0" encoding="UTF-8"?>
<configuration xmlns:xsi="http://www.w3.org/2001/XMLSchema-instance"
               xsi:noNamespaceSchemaLocation="http://sumo.dlr.de/xsd/sumoConfiguration.xsd">
    <input>
        <net-file value="kolkata.net.xml"/>
        <route-files value="kolkata.rou.xml"/>
        <additional-files value="kolkata.add.xml"/>
    </input>
    <time>
        <begin value="0"/>
        <end value="3600"/>
        <step-length value="1.0"/>
    </time>
    <processing>
        <ignore-route-errors value="true"/>
        <time-to-teleport value="300"/>
    </processing>
    <report>
        <verbose value="false"/>
        <no-step-log value="true"/>
        <no-warnings value="true"/>
    </report>
</configuration>
